*Heading
** Job name: 10 Model name: Model-1
** Generated by: Abaqus/CAE 2024
*Preprint, echo=NO, model=NO, history=NO, contact=NO
** ----------------------------------------------------------------
**
*Parameter
** number of viscous mechanisms
** 
Gshear = 0.19926
Kbulk  = 0.19926e3
lamL   = 2.04
Amp    = 0.6
nu_s0  = 0.6
nu_ss  = 0.95
dE   = 1.e-2
nSdv = 3
nProps = 7
**
** PART INSTANCE: SENT-1
** 
*Node
      1,         250.,  -93.4000015
      2,   117.373077,  -93.4000015
      3,           0.,        -150.
      4,           0.,        -450.
      5,         250.,        -450.
      6,         250.,   93.4000015
      7,   117.373077,   93.4000015
      8,         150.,           0.
      9,         250.,         450.
     10,           0.,         450.
     11,           0.,         150.
     12,   239.797928,  -93.4000015
     13,   229.595856,  -93.4000015
     14,   219.393784,  -93.4000015
     15,   209.191711,  -93.4000015
     16,   198.989639,  -93.4000015
     17,   188.787582,  -93.4000015
     18,    178.58551,  -93.4000015
     19,   168.383438,  -93.4000015
     20,   158.181366,  -93.4000015
** ... 2337 like lines cut
*Element, type=CPE3
 1, 1170,  789,  715
 2,  874,  819,  816
 3,  971,  921,  969
 4, 1002,  952,  954
 5, 1166, 1067, 1026
 6, 1110, 1076, 1108
 7, 1145, 1096, 1126
 8, 1160,  751,  744
 9,  701,  700,  773
993, 1203,  170,  171
994, 1394, 1391, 1356
995, 1382, 1366, 1368
996, 1385, 1369, 1374
997, 1347, 1407, 1370
1234, 1928, 1845, 1853
1235, 1955, 1890, 1881
1236, 2148, 2183, 2100
1237, 2334, 2335, 2073
1238, 2138, 2089, 2137
1239, 2276, 2269, 2268
** ... 9 like lines cut
*Element, type=CPE4
 10,  277,  280,  354,  447
 11,  285,  103,  104,  286
 12,  278,   95,   96,  349
 13,   38,   39,  381,  422
 14,  559,  460,  464,  557
 15,  424,    2,   24,  435
 16,   23,    2,  424,  334
 17,   22,   23,  334,  330
 18,   21,   22,  330,  335
 19, 1151,  532, 1153,  534
 20,  106,  287,  275,  105
 21,  282,  100,  101,  283
 22,   93,  279,  355,   92
 23,   87,  382,  402,   86
 24,  326,   79,   80,  380
 25,   88,  284,  382,   87
 26,  314,  313,  383,  412
 27,    3,   36,  617,   35
 28,  480,  384,  422,  489
 29,  434,  617,  384,  480
** ... 2198 like lines cut
*Nset, nset=SENT-1_TOP
   9,  10, 207, 208, 209, 210, 211, 212, 213, 214, 215, 216, 217, 218, 219, 220
 221, 222, 223, 224, 225, 226, 227, 228, 229, 230
*Elset, elset=SENT-1_TOP
 1280, 1282, 1283, 1285, 1286, 1287, 1291, 1292, 1293, 1295, 1304, 1318, 1373, 1375, 1377, 1380
 1381, 1383, 1386, 1389, 1391, 1392, 1394, 1461, 1467
*Nset, nset=SENT-1_BOT
  4,  5, 65, 66, 67, 68, 69, 70, 71, 72, 73, 74, 75, 76, 77, 78
 79, 80, 81, 82, 83, 84, 85, 86, 87, 88
*Elset, elset=SENT-1_BOT
  23,  24,  25,  43,  45,  47,  48,  49,  50,  51,  52,  53,  55,  56,  58,  59
  61,  78, 116, 146, 152, 160, 190, 229, 243
*Nset, nset=SENT-1_ALL, generate
    1,  2357,     1
*Elset, elset=SENT-1_ALL, generate
    1,  2247,     1
** Section: Section-1
*Solid Section, elset=SENT-1_ALL, material=Material-1
,
*System
** 
** MATERIALS
** 
*Material, name=Material-1
*Density
1.,
*User material,Constants=<nProps>
<Gshear>,<Kbulk>,<lamL>,<Amp>,<nu_s0>,<nu_ss>,<dE>
*Depvar
<nSdv>
1,   LambdaBar, LambdaBar
2,   nu_local, nu_local
3,   Achainmax, Achainmax
** 
** BOUNDARY CONDITIONS
** 
** Name: BOT_Fixed Type: Symmetry/Antisymmetry/Encastre
*Boundary
SENT-1_BOT, ENCASTRE
** Name: Temperature Type: Temperature
** ----------------------------------------------------------------
** 
** STEP: Load1
** 
*Step, name=Load1, nlgeom=YES, inc = 100000
*static
0.1, 10., 1.e-9, 10.
** 
** BOUNDARY CONDITIONS
** 
** Name: TOP_Load Type: Displacement/Rotation
*Boundary
SENT-1_TOP, 2, 2, 150.
** 
** OUTPUT REQUESTS
** 
*Restart, write, frequency=0
** 
** FIELD OUTPUT: F-Output-1
** 
*Output, field, number interval=10
*Node Output
NT, U
*Element Output, directions=YES
LE, S, SDV
** 
** HISTORY OUTPUT: H-Output-1
** 
*Output, history, number interval=25
*Node Output, nset=SENT-1_BOT
RF2,
*Node Output, nset=SENT-1_TOP
U2,  
*End Step
** ----------------------------------------------------------------
** 
** STEP: Unload1
** 
*Step, name=Unload1, nlgeom=YES, inc = 100000
*static
0.1, 10., 1.e-9, 10.
** 
** BOUNDARY CONDITIONS
** 
** Name: TOP_Unload Type: Displacement/Rotation
*Boundary
SENT-1_TOP, 2, 2
** 
** OUTPUT REQUESTS
** 
*Restart, write, frequency=0
** 
** FIELD OUTPUT: F-Output-1
** 
*Output, field, number interval=10
*Node Output
NT, U
*Element Output, directions=YES
LE, S, SDV
** 
** HISTORY OUTPUT: H-Output-1
** 
*Output, history, number interval=25
*Node Output, nset=SENT-1_BOT
RF2, 
*Node Output, nset=SENT-1_TOP
U2, 
*End Step
** ----------------------------------------------------------------
** 
** STEP: Reload1
** 
*Step, name=Reload1, nlgeom=YES, inc = 100000
*static
0.1, 10., 1.e-9, 10.
**
** BOUNDARY CONDITIONS
** 
** Name: TOP_Reload Type: Displacement/Rotation
*Boundary
SENT-1_TOP, 2, 2, 250.
** 
** OUTPUT REQUESTS
** 
*Restart, write, frequency=0
** 
** FIELD OUTPUT: F-Output-1
** 
*Output, field, number interval=10
*Node Output
NT, U
*Element Output, directions=YES
LE, S, SDV
** 
** HISTORY OUTPUT: H-Output-1
** 
*Output, history, number interval=25
*Node Output, nset=SENT-1_BOT
RF2, 
*Node Output, nset=SENT-1_TOP
U2, 
*End Step
** ----------------------------------------------------------------
** 
** STEP: Unload2
** 
*Step, name=Unload2, nlgeom=YES, inc = 100000
*static
0.1, 10., 1.e-9, 10.
** 
** BOUNDARY CONDITIONS
** 
** Name: TOP_Unload Type: Displacement/Rotation
*Boundary
SENT-1_TOP, 2, 2
** 
** OUTPUT REQUESTS
** 
*Restart, write, frequency=0
** 
** FIELD OUTPUT: F-Output-1
** 
*Output, field, number interval=10
*Node Output
NT, U
*Element Output, directions=YES
LE, S, SDV
** 
** HISTORY OUTPUT: H-Output-1
** 
*Output, history, number interval=25
*Node Output, nset=SENT-1_BOT
RF2, 
*Node Output, nset=SENT-1_TOP
U2, 
*End Step
** ----------------------------------------------------------------
** 
** STEP: Reload2
** 
*Step, name=Reload2, nlgeom=YES, inc = 100000
*static
0.1, 10., 1.e-9, 10.
** 
** BOUNDARY CONDITIONS
** 
** Name: TOP_Load Type: Displacement/Rotation
*Boundary
SENT-1_TOP, 2, 2, 350.
** 
** OUTPUT REQUESTS
** 
*Restart, write, frequency=0
** 
** FIELD OUTPUT: F-Output-1
** 
*Output, field, number interval=10
*Node Output
NT, U
*Element Output, directions=YES
LE, S, SDV
** 
** HISTORY OUTPUT: H-Output-1
** 
*Output, history, number interval=25
*Node Output, nset=SENT-1_BOT
RF2, 
*Node Output, nset=SENT-1_TOP
U2, 
*End Step
** ----------------------------------------------------------------
** 
** STEP: Unload3
** 
*Step, name=Unload3, nlgeom=YES, inc = 100000
*static
0.1, 10., 1.e-9, 10.
** 
** BOUNDARY CONDITIONS
** 
** Name: TOP_Unload Type: Displacement/Rotation
*Boundary
SENT-1_TOP, 2, 2
** 
** OUTPUT REQUESTS
** 
*Restart, write, frequency=0
** 
** FIELD OUTPUT: F-Output-1
** 
*Output, field, number interval=10
*Node Output
NT, U
*Element Output, directions=YES
LE, S, SDV
** 
** HISTORY OUTPUT: H-Output-1
** 
*Output, history, number interval=25
*Node Output, nset=SENT-1_BOT
RF2, 
*Node Output, nset=SENT-1_TOP
U2, 
*End Step
** ----------------------------------------------------------------