*Heading
** Job name: 2_5 Model name: Model-1
** Generated by: Abaqus/CAE 2024
*Preprint, echo=NO, model=NO, history=NO, contact=NO
** ----------------------------------------------------------------
**
*Parameter
** number of viscous mechanisms
** 
Gshear = 0.19926
Kbulk  = 0.19926e3
lamL   = 2.04
Amp    = 0.6
nu_s0  = 0.6
nu_ss  = 0.95
dE   = 1.e-2
nSdv = 3
nProps = 7
**
** PART INSTANCE: SENT-1
** 
*Node
      1,         250.,  -93.4000015
      2,   117.373077,  -93.4000015
      3,           0.,        -150.
      4,           0.,        -450.
      5,         250.,        -450.
      6,         250.,   93.4000015
      7,   117.373077,   93.4000015
      8,         150.,           0.
      9,         250.,         450.
     10,           0.,         450.
     11,           0.,         150.
     12,   247.497604,  -93.4000015
     13,   244.995209,  -93.4000015
     14,   242.492813,  -93.4000015
     15,   239.990417,  -93.4000015
     16,   237.488022,  -93.4000015
     17,   234.985626,  -93.4000015
     18,   232.483231,  -93.4000015
     19,   229.980835,  -93.4000015
     20,   227.478455,  -93.4000015
** ... 7652 like lines cut
*Element, type=CPE3
 1, 1840,  677, 1839
 2, 1775, 1765,  620
 3, 1788, 1818, 1808
 4, 1555, 1546, 1552
 5, 1657, 1403, 1641
 6, 1051, 1018, 1014
 7, 1104, 1928,  480
 8, 1967, 1984,  481
 9, 1735,  606, 1714
10, 1752, 1713,  638
11, 1859,  662, 1857
12, 1834, 1825, 1829
13, 1856, 1851,  691
14, 1861, 1878, 1872
15, 1045,  475, 1023
16, 1067, 1079, 2053
17, 1133, 1088, 1113
18, 1984, 1132, 1131
19,  535, 1348, 1397
20, 1452, 1418, 1417
** ... 193 like lines cut
*Element, type=CPE4
  50, 1896,   12,   13,  771
  51, 1010, 1035,  163,  164
  52,  161, 1141, 1246,  160
  53,  160, 1246, 1247,  159
  54,  158, 1272, 1248,  157
  55, 1263,  156,  157, 1248
  56, 1244,  154,  155, 1271
  57, 1901, 1262,  566, 1270
  58, 1249,  151,  152, 1270
  59, 1261,  150,  151, 1249
  60, 1245,  148,  149, 1269
  61, 1268, 1260, 1334,  617
  62, 1383, 1258, 1259, 1360
  63,  144, 1258, 1257,  143
  64,  659, 1256, 1900, 1267
  65,  141, 1256, 1255,  140
  66, 1266, 1347,  686, 1254
  67,  138, 1254, 1243,  137
  68, 1252, 1253, 1336,  711
  69,  726, 1251, 1265, 1363
** ... 7361 like lines cut
*Nset, nset=SENT-1_TOP
   9,  10, 406, 407, 408, 409, 410, 411, 412, 413, 414, 415, 416, 417, 418, 419
 420, 421, 422, 423, 424, 425, 426, 427, 428, 429
*Elset, elset=SENT-1_TOP
 5810, 5811, 5812, 5813, 5906, 5907, 5942, 5960, 5976, 5993, 5994, 6009, 6010, 6024, 6025, 6050
 6063, 6074, 6085, 6423, 6424, 6425, 6426, 7022, 7028
*Nset, nset=SENT-1_BOT
   4,   5, 106, 107, 108, 109, 110, 111, 112, 113, 114, 115, 116, 117, 118, 119
 120, 121, 122, 123, 124, 125, 126, 127, 128, 129
*Elset, elset=SENT-1_BOT
  72,  73, 148, 150, 258, 266, 267, 270, 271, 289, 307, 308, 324, 339, 353, 367
 380, 391, 683, 684, 685, 686, 688, 689, 690
*Nset, nset=SENT-1_ALL, generate
    1,  7672,     1
*Elset, elset=SENT-1_ALL, generate
    1,  7594,     1
** Section: Section-1
*Solid Section, elset=SENT-1_ALL, material=Material-1
,
*System
** 
** MATERIALS
** 
*Material, name=Material-1
*Density
1.,
*User material,Constants=<nProps>
<Gshear>,<Kbulk>,<lamL>,<Amp>,<nu_s0>,<nu_ss>,<dE>
*Depvar
<nSdv>
1,   LambdaBar, LambdaBar
2,   nu_local, nu_local
3,   Achainmax, Achainmax
** BOUNDARY CONDITIONS
** 
** Name: BOT_Fixed Type: Symmetry/Antisymmetry/Encastre
*Boundary
SENT-1_BOT, ENCASTRE
** Name: Temperature Type: Temperature
** ----------------------------------------------------------------
** 
** STEP: Load1
** 
*Step, name=Load1, nlgeom=YES, inc = 100000
*static
0.1, 10., 1.e-9, 10.
** 
** BOUNDARY CONDITIONS
** 
** Name: TOP_Load Type: Displacement/Rotation
*Boundary
SENT-1_TOP, 2, 2, 150.
** 
** OUTPUT REQUESTS
** 
*Restart, write, frequency=0
** 
** FIELD OUTPUT: F-Output-1
** 
*Output, field, number interval=10
*Node Output
NT, U
*Element Output, directions=YES
LE, S, SDV
** 
** HISTORY OUTPUT: H-Output-1
** 
*Output, history, number interval=25
*Node Output, nset=SENT-1_BOT
RF2, 
*End Step
** ----------------------------------------------------------------
** 
** STEP: Unload1
** 
*Step, name=Unload1, nlgeom=YES, inc = 100000
*static
0.1, 10., 1.e-9, 10.
** 
** BOUNDARY CONDITIONS
** 
** Name: TOP_Unload Type: Displacement/Rotation
*Boundary
SENT-1_TOP, 2, 2
** 
** OUTPUT REQUESTS
** 
*Restart, write, frequency=0
** 
** FIELD OUTPUT: F-Output-1
** 
*Output, field, number interval=10
*Node Output
NT, U
*Element Output, directions=YES
LE, S, SDV
** 
** HISTORY OUTPUT: H-Output-1
** 
*Output, history, number interval=25
*Node Output, nset=SENT-1_BOT
RF2, 
*End Step
** ----------------------------------------------------------------
** 
** STEP: Reload1
** 
*Step, name=Reload1, nlgeom=YES, inc = 100000
*static
0.1, 10., 1.e-9, 10.
**
** BOUNDARY CONDITIONS
** 
** Name: TOP_Reload Type: Displacement/Rotation
*Boundary
SENT-1_TOP, 2, 2, 250.
** 
** OUTPUT REQUESTS
** 
*Restart, write, frequency=0
** 
** FIELD OUTPUT: F-Output-1
** 
*Output, field, number interval=10
*Node Output
NT, U
*Element Output, directions=YES
LE, S, SDV
** 
** HISTORY OUTPUT: H-Output-1
** 
*Output, history, number interval=25
*Node Output, nset=SENT-1_BOT
RF2, 
*End Step
** ----------------------------------------------------------------
** 
** STEP: Unload2
** 
*Step, name=Unload2, nlgeom=YES, inc = 100000
*static
0.1, 10., 1.e-9, 10.
** 
** BOUNDARY CONDITIONS
** 
** Name: TOP_Unload Type: Displacement/Rotation
*Boundary
SENT-1_TOP, 2, 2
** 
** OUTPUT REQUESTS
** 
*Restart, write, frequency=0
** 
** FIELD OUTPUT: F-Output-1
** 
*Output, field, number interval=10
*Node Output
NT, U
*Element Output, directions=YES
LE, S, SDV
** 
** HISTORY OUTPUT: H-Output-1
** 
*Output, history, number interval=25
*Node Output, nset=SENT-1_BOT
RF2, 
*End Step
** ----------------------------------------------------------------
** 
** STEP: Reload2
** 
*Step, name=Reload2, nlgeom=YES, inc = 100000
*static
0.1, 10., 1.e-9, 10.
** 
** BOUNDARY CONDITIONS
** 
** Name: TOP_Load Type: Displacement/Rotation
*Boundary
SENT-1_TOP, 2, 2, 350.
** 
** OUTPUT REQUESTS
** 
*Restart, write, frequency=0
** 
** FIELD OUTPUT: F-Output-1
** 
*Output, field, number interval=10
*Node Output
NT, U
*Element Output, directions=YES
LE, S, SDV
** 
** HISTORY OUTPUT: H-Output-1
** 
*Output, history, number interval=25
*Node Output, nset=SENT-1_BOT
RF2, 
*End Step
** ----------------------------------------------------------------
** 
** STEP: Unload3
** 
*Step, name=Unload3, nlgeom=YES, inc = 100000
*static
0.1, 10., 1.e-9, 10.
** 
** BOUNDARY CONDITIONS
** 
** Name: TOP_Unload Type: Displacement/Rotation
*Boundary
SENT-1_TOP, 2, 2
** 
** OUTPUT REQUESTS
** 
*Restart, write, frequency=0
** 
** FIELD OUTPUT: F-Output-1
** 
*Output, field, number interval=10
*Node Output
NT, U
*Element Output, directions=YES
LE, S, SDV
** 
** HISTORY OUTPUT: H-Output-1
** 
*Output, history, number interval=25
*Node Output, nset=SENT-1_BOT
RF2, 
*End Step
** ----------------------------------------------------------------