*Heading
** Job name: 5 Model name: Model-1
** Generated by: Abaqus/CAE 2024
*Preprint, echo=NO, model=NO, history=NO, contact=NO
** ----------------------------------------------------------------
**
*Parameter
**
lc = 0.1
CP = 1.e0
tau = 1.
** 
Gshear = 0.19926
Kbulk  = 0.19926e3
lamL   = 2.04
Amp    = 0.6
nu_s0  = 0.6
nu_ss  = 0.95
dE   = 1.e-2
**
nSdv = 4
nProps = 7
**  
** PART INSTANCE: SENT-1
** 
*Node
      1,         250.,  -93.4000015
      2,   117.373077,  -93.4000015
      3,           0.,        -150.
      4,           0.,        -450.
      5,         250.,        -450.
      6,         250.,   93.4000015
      7,   117.373077,   93.4000015
      8,         150.,           0.
      9,         250.,         450.
     10,           0.,         450.
     11,           0.,         150.
     12,   245.087891,  -93.4000015
     13,   240.175781,  -93.4000015
     14,   235.263672,  -93.4000015
     15,   230.351562,  -93.4000015
     16,   225.439453,  -93.4000015
     17,   220.527344,  -93.4000015
     18,    215.61525,  -93.4000015
     19,    210.70314,  -93.4000015
     20,   205.791031,  -93.4000015
** ... 3370 like lines cut
*Element, type=CPE3T
 1, 1352,  486,  421
 2,  412,  402,  404
 3,  866,  874,  802
 4,  652,  571,  568
 5, 1362,  729,  573
 6, 1381, 1050, 1133
 7, 1011,  960,  966
 8, 1072, 1022, 1024
 9, 1136, 1052, 1095
10, 1080, 1034, 1035
11, 1144, 1063, 1100
12, 1094, 1047, 1000
13, 1097, 1053, 1003
14, 1205, 1129, 1165
15, 1409, 1192, 1228
16, 1209, 1193, 1191
17, 1224, 1183, 1160
18, 1256, 1201, 1223
19, 1408, 1265, 1237
20, 1277, 1245, 1208
** ... 35 like lines cut
*Element, type=CPE4T
  26,  437,  441,  502,  583
  27,   59,  462,  465,   58
  28,  438,  109,  110,  495
  29,   52,  528,  608,   51
  30,  463,  464,  524,  644
  31,  359,   37,    2,   38
  32,  339,   36,   37,  359
  33,  340,   34,   35, 1335
  34,   34,  340,  341,   33
  35,  342,   32,   33,  341
  36,  338,   31,   32,  342
  37,  392, 1351,  382,  383
  38,  447,  124,  125,  455
  39,  458,   62,   63,  466
  40,  544,  553,  619,  620
  41,  443,  117,  118,  444
  42,  433,  114,  115,  434
  43,  496,  438,  582,  600
  44,  437,  111,  112,  441
  45,  101,  527,  548,  100
** ... 3199 like lines cut
*Nset, nset=SENT-1_TOP
   9,  10, 273, 274, 275, 276, 277, 278, 279, 280, 281, 282, 283, 284, 285, 286
 287, 288, 289, 290, 291, 292, 293, 294, 295, 296
*Elset, elset=SENT-1_TOP
 2200, 2202, 2204, 2206, 2208, 2212, 2213, 2214, 2216, 2224, 2236, 2388, 2520, 2524, 2542, 2545
 2551, 2553, 2555, 2557, 2560, 2564, 2566, 2567, 2569
*Nset, nset=SENT-1_BOT
   4,   5,  79,  80,  81,  82,  83,  84,  85,  86,  87,  88,  89,  90,  91,  92
  93,  94,  95,  96,  97,  98,  99, 100, 101, 102
*Elset, elset=SENT-1_BOT
  45,  50,  70,  71,  73,  74,  75,  76,  77,  78,  79,  81,  82,  84,  85,  87
  94,  97, 104, 243, 273, 282, 288, 334, 351
*Nset, nset=SENT-1_ALL, generate
    1,  3390,     1
*Elset, elset=SENT-1_ALL, generate
    1,  3274,     1
** Section: Section-1
*Solid Section, elset=SENT-1_ALL, material=Material-1
,
*System
** 
** MATERIALS
** 
*Material, name=Material-1
**
*Density
1.,
*User material,Constants=<nProps>
<Gshear>,<Kbulk>,<lamL>,<Amp>,<nu_s0>,<nu_ss>,<dE>
*User material, type=thermal, constants=3
<lc>,<CP>,<tau>
*Depvar
<nSdv>
1,   LambdaBar, LambdaBar
2,   nu_nonlocal, nu_nonlocal
3,   Achainmax, Achainmax
4,   numax, numax
**  
** BOUNDARY CONDITIONS
** 
** Name: BOT_Fixed Type: Symmetry/Antisymmetry/Encastre
*Boundary
SENT-1_BOT, ENCASTRE
** Name: Temperature Type: Temperature
*********************************************************************
**                 INITIAL CONDITIONS, MODEL DATA
*********************************************************************
*Initial Conditions, type=TEMPERATURE
SENT-1_ALL, <nu_s0>
** ----------------------------------------------------------------
** 
** STEP: Load1
** 
*Step, name=Load1, nlgeom=YES, inc = 100000
*Coupled Temperature-displacement, creep=none, deltmx=1.
0.1, 10., 1.e-9, 10.
** 
*CONTROLS, PARAMETERS=TIME INCREMENTATION
, , , , , , ,20 , , ,
*SOLUTION TECHNIQUE, TYPE = SEPARATED
** 
** BOUNDARY CONDITIONS
** 
** Name: TOP_Load Type: Displacement/Rotation
*Boundary
SENT-1_TOP, 2, 2, 150.
** 
** OUTPUT REQUESTS
** 
*Restart, write, frequency=0
** 
** FIELD OUTPUT: F-Output-1
** 
*Output, field, number interval=10
*Node Output
NT, U
*Element Output, directions=YES
LE, S, SDV
** 
** HISTORY OUTPUT: H-Output-1
** 
*Output, history, number interval=25
*Node Output, nset=SENT-1_BOT
RF2, 
*End Step
** ----------------------------------------------------------------
** 
** STEP: Unload1
** 
*Step, name=Unload1, nlgeom=YES, inc = 100000
*Coupled Temperature-displacement, creep=none, deltmx=1.
0.1, 10., 1.e-9, 10.
** 
*CONTROLS, PARAMETERS=TIME INCREMENTATION
, , , , , , ,20 , , ,
*SOLUTION TECHNIQUE, TYPE = SEPARATED
** 
** BOUNDARY CONDITIONS
** 
** Name: TOP_Unload Type: Displacement/Rotation
*Boundary
SENT-1_TOP, 2, 2
** 
** OUTPUT REQUESTS
** 
*Restart, write, frequency=0
** 
** FIELD OUTPUT: F-Output-1
** 
*Output, field, number interval=10
*Node Output
NT, U
*Element Output, directions=YES
LE, S, SDV
** 
** HISTORY OUTPUT: H-Output-1
** 
*Output, history, number interval=25
*Node Output, nset=SENT-1_BOT
RF2, 
*End Step
** ----------------------------------------------------------------
** 
** STEP: Reload1
** 
*Step, name=Reload1, nlgeom=YES, inc = 100000
*Coupled Temperature-displacement, creep=none, deltmx=1.
0.1, 10., 1.e-9, 10.
** 
*CONTROLS, PARAMETERS=TIME INCREMENTATION
, , , , , , ,20 , , ,
*SOLUTION TECHNIQUE, TYPE = SEPARATED
** 
** BOUNDARY CONDITIONS
** 
** Name: TOP_Reload Type: Displacement/Rotation
*Boundary
SENT-1_TOP, 2, 2, 250.
** 
** OUTPUT REQUESTS
** 
*Restart, write, frequency=0
** 
** FIELD OUTPUT: F-Output-1
** 
*Output, field, number interval=10
*Node Output
NT, U
*Element Output, directions=YES
LE, S, SDV
** 
** HISTORY OUTPUT: H-Output-1
** 
*Output, history, number interval=25
*Node Output, nset=SENT-1_BOT
RF2, 
*End Step
** ----------------------------------------------------------------
** 
** STEP: Unload2
** 
*Step, name=Unload2, nlgeom=YES, inc = 100000
*Coupled Temperature-displacement, creep=none, deltmx=1.
0.1, 10., 1.e-9, 10.
** 
*CONTROLS, PARAMETERS=TIME INCREMENTATION
, , , , , , ,20 , , ,
*SOLUTION TECHNIQUE, TYPE = SEPARATED
** 
** BOUNDARY CONDITIONS
** 
** Name: TOP_Unload Type: Displacement/Rotation
*Boundary
SENT-1_TOP, 2, 2
** 
** OUTPUT REQUESTS
** 
*Restart, write, frequency=0
** 
** FIELD OUTPUT: F-Output-1
** 
*Output, field, number interval=10
*Node Output
NT, U
*Element Output, directions=YES
LE, S, SDV
** 
** HISTORY OUTPUT: H-Output-1
** 
*Output, history, number interval=25
*Node Output, nset=SENT-1_BOT
RF2, 
*End Step
** ----------------------------------------------------------------
** 
** STEP: Reload2
** 
*Step, name=Reload2, nlgeom=YES, inc = 100000
*Coupled Temperature-displacement, creep=none, deltmx=1.
0.1, 10., 1.e-9, 10.
** 
*CONTROLS, PARAMETERS=TIME INCREMENTATION
, , , , , , ,20 , , ,
*SOLUTION TECHNIQUE, TYPE = SEPARATED
** 
** BOUNDARY CONDITIONS
** 
** Name: TOP_Load Type: Displacement/Rotation
*Boundary
SENT-1_TOP, 2, 2, 350.
** 
** OUTPUT REQUESTS
** 
*Restart, write, frequency=0
** 
** FIELD OUTPUT: F-Output-1
** 
*Output, field, number interval=10
*Node Output
NT, U
*Element Output, directions=YES
LE, S, SDV
** 
** HISTORY OUTPUT: H-Output-1
** 
*Output, history, number interval=25
*Node Output, nset=SENT-1_BOT
RF2, 
*End Step
** ----------------------------------------------------------------
** 
** STEP: Unload3
** 
*Step, name=Unload3, nlgeom=YES, inc = 100000
*Coupled Temperature-displacement, creep=none, deltmx=1.
0.1, 10., 1.e-9, 10.
** 
*CONTROLS, PARAMETERS=TIME INCREMENTATION
, , , , , , ,20 , , ,
*SOLUTION TECHNIQUE, TYPE = SEPARATED
** 
** BOUNDARY CONDITIONS
** 
** Name: TOP_Unload Type: Displacement/Rotation
*Boundary
SENT-1_TOP, 2, 2
** 
** OUTPUT REQUESTS
** 
*Restart, write, frequency=0
** 
** FIELD OUTPUT: F-Output-1
** 
*Output, field, number interval=10
*Node Output
NT, U
*Element Output, directions=YES
LE, S, SDV
** 
** HISTORY OUTPUT: H-Output-1
** 
*Output, history, number interval=25
*Node Output, nset=SENT-1_BOT
RF2, 
*End Step
** ----------------------------------------------------------------
